Version 4
SHEET 1 4432 1844
WIRE 1248 32 1248 16
WIRE 192 48 112 48
WIRE 336 48 272 48
WIRE 2576 48 2448 48
WIRE 3104 48 3008 48
WIRE 2256 64 2224 64
WIRE 624 80 592 80
WIRE 736 80 688 80
WIRE 2496 80 2448 80
WIRE 3104 80 3104 48
WIRE 1984 96 1920 96
WIRE 2256 96 2064 96
WIRE 2528 112 2448 112
WIRE 1248 128 1248 112
WIRE 1280 128 1248 128
WIRE 1920 128 1920 96
WIRE 1280 144 1280 128
WIRE -624 176 -624 112
WIRE 3104 176 3104 144
WIRE -1152 192 -1152 128
WIRE -976 192 -976 128
WIRE -144 192 -208 192
WIRE -48 192 -144 192
WIRE 112 192 112 48
WIRE 112 192 32 192
WIRE 1280 192 1248 192
WIRE 112 224 112 192
WIRE 256 224 112 224
WIRE 2560 224 2448 224
WIRE 336 240 336 48
WIRE 336 240 320 240
WIRE 464 240 336 240
WIRE 592 240 592 80
WIRE 592 240 544 240
WIRE 640 240 592 240
WIRE 1600 240 1504 240
WIRE 2256 240 2224 240
WIRE 256 256 112 256
WIRE 736 256 736 80
WIRE 736 256 704 256
WIRE 768 256 736 256
WIRE 896 256 768 256
WIRE 2480 256 2448 256
WIRE 640 272 608 272
WIRE 1600 272 1600 240
WIRE 2256 272 2096 272
WIRE -624 288 -624 256
WIRE -528 288 -624 288
WIRE -144 288 -144 192
WIRE -64 288 -144 288
WIRE 96 288 16 288
WIRE 112 288 112 256
WIRE 112 288 96 288
WIRE 1280 288 1232 288
WIRE 2096 288 2096 272
WIRE 2528 288 2448 288
WIRE 608 304 608 272
WIRE -1152 320 -1152 272
WIRE -976 320 -976 272
WIRE -624 320 -624 288
WIRE -528 320 -528 288
WIRE 2016 352 2016 336
WIRE 1600 384 1600 352
WIRE 2560 400 2448 400
WIRE 2256 416 2224 416
WIRE 2480 432 2448 432
WIRE 2016 448 2016 432
WIRE 2256 448 2016 448
WIRE 2016 464 2016 448
WIRE 2528 464 2448 464
WIRE 3232 464 3184 464
WIRE -624 480 -624 400
WIRE 96 480 96 288
WIRE 768 480 768 256
WIRE 768 480 544 480
WIRE 3008 480 2976 480
WIRE 480 496 272 496
WIRE 1904 496 1904 448
WIRE 2976 496 2976 480
WIRE 576 512 544 512
WIRE 1408 512 1392 512
WIRE 1536 512 1520 512
WIRE 3008 528 2944 528
WIRE 1408 544 1392 544
WIRE 1536 544 1520 544
WIRE 272 560 272 496
WIRE 272 560 144 560
WIRE 2016 560 2016 544
WIRE 3008 560 2944 560
WIRE 1408 576 1392 576
WIRE 1536 576 1520 576
WIRE 2560 576 2448 576
WIRE 2256 592 2224 592
WIRE 2944 592 2944 560
WIRE 1408 608 1392 608
WIRE 1536 608 1520 608
WIRE 2480 608 2448 608
WIRE 3152 608 3152 592
WIRE 1904 624 1904 576
WIRE 2256 624 1904 624
WIRE 272 640 272 560
WIRE 384 640 272 640
WIRE 576 640 576 512
WIRE 576 640 464 640
WIRE 2528 640 2448 640
WIRE 576 672 576 640
WIRE 2944 688 2944 672
WIRE 96 720 96 576
WIRE 576 784 576 752
WIRE -928 832 -1008 832
WIRE -592 832 -672 832
WIRE -1008 864 -1008 832
WIRE -592 880 -592 832
WIRE -1008 976 -1008 928
WIRE -800 976 -800 928
WIRE -800 976 -1008 976
WIRE -592 976 -592 944
WIRE -592 976 -800 976
WIRE -800 1008 -800 976
FLAG 608 304 0
FLAG 576 784 0
FLAG 96 720 0
FLAG 896 256 V_MCVO
FLAG -976 320 0
FLAG -528 320 0
FLAG -624 112 VCC+
FLAG -624 480 VCC-
FLAG 672 224 VCC+
FLAG 288 208 VCC+
FLAG 512 464 VCC+
FLAG 288 272 VCC-
FLAG 672 288 VCC-
FLAG 512 528 VCC-
FLAG -208 192 V_MCV4
FLAG -976 128 V_MCV4
FLAG -1152 320 0
FLAG -1152 128 V_Gate
FLAG -592 832 vdd
FLAG 1248 16 vdd
FLAG 1600 384 0
FLAG 1280 368 vdd
FLAG 1280 256 0
FLAG 1200 736 vdd
FLAG 1200 704 0
FLAG 1200 672 0
FLAG 1600 240 O1
FLAG 1232 288 V_Gate
FLAG 1200 576 0
FLAG 1200 544 V_Gate
FLAG 1200 512 O1
FLAG 2224 64 CTRL0
IOPIN 2224 64 In
FLAG 2496 80 VDD
IOPIN 2496 80 In
FLAG 2528 112 0
FLAG 2576 48 Vs
IOPIN 2576 48 Out
FLAG 2224 416 CTRL2
IOPIN 2224 416 In
FLAG 2480 432 VDD
IOPIN 2480 432 In
FLAG 2528 464 0
FLAG 2560 400 Vs
IOPIN 2560 400 Out
FLAG 2224 240 CTRL1
IOPIN 2224 240 In
FLAG 2480 256 VDD
IOPIN 2480 256 In
FLAG 2528 288 0
FLAG 2224 592 CTRL3
IOPIN 2224 592 In
FLAG 2480 608 VDD
IOPIN 2480 608 In
FLAG 2528 640 0
FLAG 2560 576 Vs
IOPIN 2560 576 Out
FLAG 2560 224 Vs
IOPIN 2560 224 Out
FLAG 1536 512 CTRL0
IOPIN 1536 512 In
FLAG 1536 544 CTRL1
IOPIN 1536 544 In
FLAG 1536 576 CTRL2
IOPIN 1536 576 In
FLAG 1536 608 CTRL3
IOPIN 1536 608 In
FLAG 3008 48 Vs
IOPIN 3008 48 Out
FLAG 3104 176 0
FLAG 2096 288 0
FLAG 2016 336 VDD
IOPIN 2016 336 In
FLAG 2016 560 0
FLAG 1904 448 VDD
IOPIN 1904 448 In
FLAG 1920 128 0
FLAG 3088 416 VCC+
FLAG 3088 592 VCC-
FLAG 3152 608 0
FLAG 3232 464 audio_out
FLAG 2976 496 0
FLAG 3008 448 V_MCVO
FLAG 2944 688 0
FLAG 2944 528 Vs
IOPIN 2944 528 Out
FLAG -800 1008 0
FLAG -1008 832 VCC+
SYMBOL res 48 176 R90
WINDOW 0 0 56 VBottom 2
WINDOW 3 32 56 VTop 2
SYMATTR InstName R1
SYMATTR Value 10k
SYMBOL res 288 32 R90
WINDOW 0 0 56 VBottom 2
WINDOW 3 32 56 VTop 2
SYMATTR InstName R2
SYMATTR Value 10k
SYMBOL res 32 272 R90
WINDOW 0 0 56 VBottom 2
WINDOW 3 32 56 VTop 2
SYMATTR InstName R3
SYMATTR Value 82k
SYMBOL res 480 624 R90
WINDOW 0 0 56 VBottom 2
WINDOW 3 32 56 VTop 2
SYMATTR InstName R4
SYMATTR Value 26k
SYMBOL res 592 768 R180
WINDOW 0 36 76 Left 2
WINDOW 3 36 40 Left 2
SYMATTR InstName R5
SYMATTR Value 22k
SYMBOL res 560 224 R90
WINDOW 0 0 56 VBottom 2
WINDOW 3 32 56 VTop 2
SYMATTR InstName R6
SYMATTR Value 27k4
SYMBOL cap 624 64 M90
WINDOW 0 0 32 VBottom 2
WINDOW 3 32 32 VTop 2
SYMATTR InstName C1
SYMATTR Value 3n3
SYMATTR SpiceLine V=25 Irms=209m Rser=0.689086 Lser=0
SYMBOL voltage -624 160 R0
WINDOW 123 0 0 Left 0
WINDOW 39 0 0 Left 0
SYMATTR InstName V2
SYMATTR Value 15
SYMBOL voltage -624 304 R0
WINDOW 123 0 0 Left 0
WINDOW 39 0 0 Left 0
SYMATTR InstName V3
SYMATTR Value 15
SYMBOL nmos 144 480 M0
SYMATTR InstName M1
SYMBOL voltage -976 176 R0
WINDOW 123 0 0 Left 0
WINDOW 39 0 0 Left 0
WINDOW 3 194 -442 Invisible 2
SYMATTR Value PWL(0 0 1m {do} 1.5 {do} 1.501 {re} 2 {re} 2.001{mi} 3 {mi} 3.001{re} 4 {re} 4.001 {do} 4.5 {do} 4.501 {mi} 5 {mi} 5.001 {re} 6 {re} 6.001 {do} 7 {do})
SYMATTR InstName V1
SYMBOL voltage -1152 176 R0
WINDOW 3 358 -289 Invisible 2
WINDOW 123 0 0 Left 0
WINDOW 39 0 0 Left 0
SYMATTR Value PWL(0 0 1m 5 0.4 5 0.401 0 0.5 0 0.501 5 0.9 5 0.901 0 1 0 1.001 5 1.4 5 1.401 0 1.5 0 1.501 5 1.9 5 1.901 0 2 0 2.001 5 2.9 5 2.901 0 3 0 3.001 5 3.9 5 3.901 0 4 0 4.001 5 4.4 5 4.401 0 4.5 0 4.501 5 4.9 5 4.901 0 5 0 5.001 5 5.4 5 5.401 0 5.5 0 5.501 5 5.9 5 5.901 0 6 0 6.001 5 6.9 5 6.901 0)
SYMATTR InstName V4
SYMBOL 74hct123 1392 80 R0
SYMATTR InstName U4
SYMBOL res 1232 16 R0
SYMATTR InstName R7
SYMATTR Value 800k
SYMBOL cap 1232 128 R0
WINDOW 0 -21 9 Left 2
WINDOW 3 -68 55 Left 2
SYMATTR InstName C2
SYMATTR Value 330n
SYMBOL res 1584 256 R0
SYMATTR InstName R8
SYMATTR Value 0.1Meg
SYMBOL 74hct138 1296 448 R0
SYMATTR InstName U5
SYMBOL 74hct04 1456 448 R0
WINDOW 3 -46 7 Left 2
SYMATTR InstName U6
SYMBOL 74hct04 1456 480 R0
WINDOW 3 -46 7 Left 2
SYMATTR InstName U7
SYMBOL 74hct04 1456 512 R0
WINDOW 3 -46 7 Left 2
SYMATTR InstName U8
SYMBOL 74hct04 1456 544 R0
WINDOW 3 -46 7 Left 2
SYMATTR InstName U9
SYMBOL CD4066 2352 256 R0
SYMATTR InstName U10
SYMBOL CD4066 2352 608 R0
SYMATTR InstName U11
SYMBOL CD4066 2352 80 R0
SYMATTR InstName U12
SYMBOL CD4066 2352 432 R0
SYMATTR InstName U13
SYMBOL cap 3088 80 R0
SYMATTR InstName C3
SYMATTR Value 1µ
SYMBOL res 2080 80 R90
WINDOW 0 0 56 VBottom 2
WINDOW 3 32 56 VTop 2
SYMATTR InstName R9
SYMATTR Value 10k
SYMBOL res 2000 336 R0
SYMATTR InstName R10
SYMATTR Value 177k
SYMBOL res 2000 448 R0
SYMATTR InstName R11
SYMATTR Value 118k
SYMBOL res 1888 480 R0
SYMATTR InstName R12
SYMATTR Value 65k
SYMBOL AD633 3104 496 R0
SYMATTR InstName U14
SYMBOL res 2928 576 R0
SYMATTR InstName R13
SYMATTR Value 10k
SYMBOL 7805 -800 832 R0
SYMATTR InstName U15
SYMBOL cap -608 880 R0
SYMATTR InstName C4
SYMATTR Value 10n
SYMBOL cap -1024 864 R0
SYMATTR InstName C5
SYMATTR Value 100n
SYMBOL OpAmps\\UniversalOpAmp2 288 240 R0
SYMATTR InstName U17
SYMBOL OpAmps\\UniversalOpAmp2 672 256 R0
SYMATTR InstName U18
SYMBOL OpAmps\\UniversalOpAmp2 512 496 M0
SYMATTR InstName U16
TEXT -808 -72 Left 2 ;Alimentation
TEXT -776 -232 Left 2 !.tran 7
TEXT -344 -72 Left 2 ;Générateur triangle
TEXT -792 -376 Left 2 ;Ordre de simulation
TEXT -784 -312 Left 2 !.param do=0.561 re=0.623 mi=0.706 fa=0.77 sol=0.853 la=0.958 si=1.082
TEXT -776 -200 Left 2 !;wave "son.wav" 16 44.1k V(audio_out)
TEXT -1224 -80 Left 2 ;MCV4
TEXT -240 -224 Left 2 !.inc 74hct_ENIB.lib\n \n.inc CD4066.lib
TEXT 1640 504 Left 2 ;release
TEXT 1640 536 Left 2 ;interupt
TEXT 1640 568 Left 2 ;decay
TEXT 1640 600 Left 2 ;attack
TEXT 24 -192 Left 2 !.inc ad633.lib
TEXT 1120 -72 Left 2 ;Génération du signale de comande
TEXT 1792 -80 Left 2 ;Génération de l'envellope
TEXT 2816 -72 Left 2 ;Mixer
TEXT -792 -168 Left 2 !;wave "son fuzz.wav" 16 44.1k V(FUZZ_out)
RECTANGLE Normal -432 624 -816 -48 2
RECTANGLE Normal 1040 832 -352 -48 2
RECTANGLE Normal 1056 -144 -816 -352 2
RECTANGLE Normal -1232 624 -912 -48 2
RECTANGLE Normal 2704 832 1776 -48 2
RECTANGLE Normal 1744 832 1104 -48 2
RECTANGLE Normal -432 1088 -1232 704 2
RECTANGLE Normal 3408 832 2768 -48 2
